<raiz>
    <vehicle id="4" depart="4.00">
        <route edges="15240247 15240253#0 15240253#1 15240253#2 15240253#3 15240253#4 586980042#0 586980042#1 586980042#2 586980042#3 586980042#4 586980042#5 586980042#6 589276468 795084568 392002072#0 392002072#1 329058531 426499144#1 795084574#0 795084574#1 795084574#2 795100846#0 795100846#1 795100846#2 426499143#0 29626093#2 29626093#3"/>
    </vehicle>
</raiz>
